<?xml version="1.0" encoding="UTF-8"?>

<!-- generated on 2022-04-21 15:56:00 by Eclipse SUMO duarouter Version v1_9_2+1005-096107e
<configuration xmlns:xsi="http://www.w3.org/2001/XMLSchema-instance" xsi:noNamespaceSchemaLocation="http://sumo.dlr.de/xsd/duarouterConfiguration.xsd">

    <input>
        <net-file value="peta.net.xml"/>
        <route-files value="trips.trips.xml"/>
    </input>

    <output>
        <output-file value="peta.rou.xml"/>
        <alternatives-output value="peta.rou.alt.xml"/>
    </output>

    <time>
        <begin value="0"/>
        <end value="60"/>
    </time>

    <report>
        <no-warnings value="true"/>
        <ignore-errors value="true"/>
        <no-step-log value="true"/>
    </report>

</configuration>
-->

<routes xmlns:xsi="http://www.w3.org/2001/XMLSchema-instance" xsi:noNamespaceSchemaLocation="http://sumo.dlr.de/xsd/routes_file.xsd">
    <vehicle id="2" depart="2.00">
        <route edges="483611733 676150373 676150374 676150375 974882095 592530906#1 28696919#0 28696919#1"/>
    </vehicle>
    <vehicle id="3" depart="3.00">
        <route edges="756322097#1 31600378 -28679839#0 19007533#1 18072031#0 762111620 762111619 18051561#0 18051561#1 484871114 484871115#0 484871115#1 484871115#2 18058268#3 18058268#4 18058268#5 18058268#0 18071437#0 -18613717#0"/>
    </vehicle>
    <vehicle id="4" depart="4.00">
        <route edges="18613717#0 -18071437#0 18058268#1 18058268#2 18058268#3 -556966712#1 -556966712#0 -18058331#1"/>
    </vehicle>
    <vehicle id="5" depart="5.00">
        <route edges="-28696886 18051129#3 761561846 761561847#0 761561847#1 18058268#0 18058268#1 557518746#0 557518746#1 557518746#2 557518745 761304617 557518747 761568617 759615084#1 18051561#0 761304616#0 19007537#0 19007537#1 19007537#2 257420832"/>
    </vehicle>
    <vehicle id="6" depart="6.00">
        <route edges="-18058402#1 -18058331#0 192692994#3 483611732 592530904 592530903 761304616#4 481753148 592530902 592530901 192692992#0 192692992#1 192692992#2 760232627 737187916#0 737187916#1 28192810#0 28192810#1 28192810#2 28192810#3 28192810#4 -28696681"/>
    </vehicle>
    <vehicle id="8" depart="8.00">
        <route edges="-28696886 18051129#3 761561846 761561847#0 761561847#1 18058268#0 18058268#1 18058268#2 18058268#3 -556966712#1 -556966712#0 -18058331#1 -18058331#0 192692994#3 483611732 592530904 592530903 759678731 192692986#0 192692986#1 192692986#2 192692986#3 192692986#4 192692986#5 688941733 653351448 28193102#0 28193102#1"/>
    </vehicle>
    <vehicle id="9" depart="9.00">
        <route edges="594820800#0 1033795985 18051129#1 18051129#2 18051129#3 761561846 761561847#0 761561847#1 18058268#0 18058268#1 557518746#0 557518746#1 557518746#2 557518745 761304617 557518747 761568617 761568618 18072031#2 759691133 28696629 121116103 -168972807#1 -168972807#0"/>
    </vehicle>
    <vehicle id="11" depart="11.00">
        <route edges="18057042#0 18057042#1 760562721 694263264#0 694263264#1 28193047 759691132 18072031#0 18072031#1 18072031#2 759691133 28696629 121116103 694263265#0 694263265#1 -28193669"/>
    </vehicle>
    <vehicle id="12" depart="12.00">
        <route edges="761561849 761561848 761561850 18051129#2 18051129#3 761561846 761561847#0 761561847#1 18058268#0 18058268#1 18058268#2 18058268#3 -556966712#1 -556966712#0 -18058331#1 18058402#1"/>
    </vehicle>
    <vehicle id="13" depart="13.00">
        <route edges="-18613717#2 -18613717#1"/>
    </vehicle>
    <vehicle id="14" depart="14.00">
        <route edges="701220983#1 701220983#2 701220983#3 28193047 759691132 18072031#0 18072031#1 18072031#2 759691133 28696629 121116103 694263265#0 28193675"/>
    </vehicle>
    <vehicle id="16" depart="16.00">
        <route edges="28192576#2 -28192576#2 -28192576#1 -28192576#0 696111993 653351447 192696454#0 192696454#1 192696454#2 192696454#3 192696454#4 689901492 481753148 592530902 592530901 28696919#4 483611732 592530904 592530903 759678731 192692986#0 192692986#1 192692986#2 192692986#3 192692986#4 19007533#0 19007533#1 18072031#0 762111620"/>
    </vehicle>
    <vehicle id="17" depart="17.00">
        <route edges="18070961 -18070961 28696919#3 192692992#0 192692992#1 192692992#2 760232627 737187916#0 737187916#1 28192810#0"/>
    </vehicle>
    <vehicle id="18" depart="18.00">
        <route edges="694263265#2 694263266 694263264#1 484871112 760240742 760560926 653351448 653351447 192696454#0 192696454#1 192696454#2 192696454#3 192696454#4 689901492 483611733 -676150371 28245898#0 28245898#1 28245898#2"/>
    </vehicle>
    <vehicle id="19" depart="19.00">
        <route edges="744812143 946198199 192696451#0 -28192229 18057042#1 760562721 694263264#0 694263264#1 484871112 760240742 760560926 653351448 28193102#0"/>
    </vehicle>
    <vehicle id="20" depart="20.00">
        <route edges="31600399 -759615085 -28679802 28696924#1 761304615 761304616#0 761304616#1 761304616#2 761304616#3 761304616#4 481753148 592530902 592530901 192692992#0 192692992#1 192692992#2 760232627 737187916#0 737187916#1 28192810#0 674359476 -18070961"/>
    </vehicle>
    <vehicle id="21" depart="21.00">
        <route edges="-556966712#1 556966712#1 18058268#4 18058268#5 18058268#0 18058268#1 557518746#0 557518746#1 557518746#2 557518745 761304617 557518747 761568617 761568618 18072031#2 759691133 28696629 121116103"/>
    </vehicle>
    <vehicle id="22" depart="22.00">
        <route edges="-18577348#2 -18577348#1 -18577348#0 18577342#1 192696454#4 689901492 481753148 592530902 592530901 28696919#4 28696919#5 28696919#6 484871115#1 484871115#2 18058268#3 -556966712#1"/>
    </vehicle>
    <vehicle id="23" depart="23.00">
        <route edges="-18640746#0 556966712#0 556966712#1 18058268#4 18058268#5 18058268#0 18058268#1 557518746#0 557518746#1 557518746#2 557518745 761304617 557518747 761568617 759615084#1 18051561#0 761304616#0 19007537#0 19007537#1 -946196536"/>
    </vehicle>
    <vehicle id="25" depart="25.00">
        <route edges="18070525#2 121872398 28696681 28192810#5 737187915 737591320 28696919#1 28696919#2 28696919#3 28696919#4 28696919#5 28696919#6 484871115#1 484871115#2 18058268#3 18058268#4 761561852#0 761561852#1 761561851 761561849 761561848 761561850 18051129#2 28696886 -28696886"/>
    </vehicle>
    <vehicle id="26" depart="26.00">
        <route edges="-760239273 -774691305 28696919#2 28696919#3 28696919#4 483611732 592530904 592530903 759678731 192692986#0 192692986#1 192692986#2 192692986#3 192692986#4 192692986#5 760240741 760560927 676214480 760240742 760560926"/>
    </vehicle>
    <vehicle id="27" depart="27.00">
        <route edges="28696685 18070850 -760239273 -774691305 28696919#2 28696919#3 28696919#4 28696919#5 28696919#6 28696919#7 557518746#2 557518745 761304617 557518747 761568617 761568618 18072031#2 759691133 28696629 121116103 -634050668 -18055931#1 28193716"/>
    </vehicle>
    <vehicle id="28" depart="28.00">
        <route edges="-28193716 18055931#1 634050668 694263265#0 694263265#1 694263265#2 694263266 694263264#1 484871112 760240742 760560926 653351448 653351447 192696454#0 192696454#1 192696454#2 192696454#3 192696454#4 689901492 483611733"/>
    </vehicle>
    <vehicle id="29" depart="29.00">
        <route edges="-28193675 694263265#1 694263265#2 694263266 694263264#1 28193047 759691132 18072031#0 762111620 762111619 18051561#0 18051561#1 484871114 484871115#0 484871115#1 484871115#2 18058268#3 -556966712#1 -556966712#0 18640746#0 -557184653 -556966717#0 -18563768 18563768"/>
    </vehicle>
    <vehicle id="31" depart="31.00">
        <route edges="28192810#5 737187915 737591320 28696919#1 28696919#2 28696919#3"/>
    </vehicle>
    <vehicle id="32" depart="32.00">
        <route edges="701220983#0 701220983#1 701220983#2 701220983#3 28193047 759691132 18072031#0 762111620 762111619 18051561#0 18051561#1 484871114 484871115#0 484871115#1 484871115#2 18058268#3 -556966712#1 -556966712#0 556966712#0"/>
    </vehicle>
    <vehicle id="33" depart="33.00">
        <route edges="-556966712#1 -556966712#0 -18058331#1 -18058402#0"/>
    </vehicle>
    <vehicle id="34" depart="34.00">
        <route edges="18051129#3 761561846 761561847#0 761561847#1 18058268#0 18058268#1 18058268#2 18058268#3 -556966712#1 -556966712#0 18640746#0 18640746#1 18640747#0 18640747#1 18640747#2 18640747#3 556966716 556966715 760232628 737187916#0 737187916#1 28192810#0 28192810#1 28192810#2 18070850 -760239273"/>
    </vehicle>
    <vehicle id="36" depart="36.00">
        <route edges="745178523#0 745178523#1 28696663#0 28696663#1 28192810#0 674359476 -18070961 28696919#3 28696919#4 28696919#5 28696919#6 28696919#7 557518746#2 557518745 761304617 557518747 761568617 761568618 18072031#2 18056062"/>
    </vehicle>
    <vehicle id="37" depart="37.00">
        <route edges="28696762 737208757 767752452#0 28696685 28192810#3 28192810#4 28192810#5 737187915 737591319 974882094 -676150375 -676150374 -676150373 -676150371 28245898#0 28245898#1 28245898#2 735444562#0 557184652#0 18577345#0"/>
    </vehicle>
    <vehicle id="38" depart="38.00">
        <route edges="760239273 -760239273 -774691305 28696919#2 28696919#3 28696919#4 483611732 592530904 592530903 759678731 192692986#0 192692986#1 192692986#2"/>
    </vehicle>
    <vehicle id="39" depart="39.00">
        <route edges="-759615085 -28679802 28696924#1 557518747 761568617 761568618 18072031#2 759691133 28696629 121116103 -634050668"/>
    </vehicle>
    <vehicle id="40" depart="40.00">
        <route edges="28193058 192696454#0 192696454#1 192696454#2 192696454#3 192696454#4 689901492 481753148 592530902 592530901 192692992#0 192692992#1 192692992#2 760232627 737187916#0 737187916#1 28192810#0 28192810#1 28192810#2 18070850 -760239273"/>
    </vehicle>
    <vehicle id="43" depart="43.00">
        <route edges="946197004 -19007537#0 761304616#1 761304616#2 761304616#3 759678731 192692986#0 192692986#1 192692986#2 192692986#3 192692986#4 192692986#5 688941733 737457908 192696451#0 -28192229 28192229"/>
    </vehicle>
    <vehicle id="44" depart="44.00">
        <route edges="-18613717#1 -18071437#0 18058268#1 18058268#2 18058268#3 -556966712#1 -556966712#0 18640746#0 18640746#1 18640747#0 18640747#1 18640747#2 18640747#3 556966716 556966715 760232628 737187916#0 737187916#1 28192810#0 674359476 -18070961"/>
    </vehicle>
    <vehicle id="45" depart="45.00">
        <route edges="-18640747#2 18640747#2 18640747#3 556966716 192692994#0 192692994#1 192692994#2 192692994#3 483611732 592530904 592530903 759678731 192692986#0 192692986#1 192692986#2 192692986#3 192692986#4 192692986#5 688941733 653351448 653351447 192696454#0 -28192612 28679893#0"/>
    </vehicle>
    <vehicle id="47" depart="47.00">
        <route edges="-18577342#0 -28245898#0 676150371 676150373 676150374 676150375 974882095 592530906#1 28696919#0 28696919#1 28696919#2 28696919#3 28696919#4 28696919#5 18058402#0 18058402#1 760517046 761553905 760517045#4 760517045#0 761555196 18563768"/>
    </vehicle>
    <vehicle id="49" depart="49.00">
        <route edges="767752452#0 28696685 28192810#3 28192810#4 28192810#5 737187915 737591319 974882094 -676150375 -676150374 -676150373 -676150371 28245898#0 28245898#1 28245898#2 735444562#0 557184652#0 557184652#1 28193058 654096871 760240741 760560927 484871113 759697244 701220982 -613777531 701220983#0"/>
    </vehicle>
    <vehicle id="53" depart="53.00">
        <route edges="-19007537#0 761304616#1 761304616#2 761304616#3 761304616#4 481753148 592530902 592530901 28696919#4 28696919#5 18058402#0 18058331#1 18640746#0 18640746#1 18640747#0"/>
    </vehicle>
    <vehicle id="54" depart="54.00">
        <route edges="19007537#0 -19007537#0 761304616#1 761304616#2 761304616#3 761304616#4 481753148 592530902 592530901 28696919#4 28696919#5 18058402#0 18058331#1 18640746#0 -557184653 -556966717#0 761555197"/>
    </vehicle>
    <vehicle id="55" depart="55.00">
        <route edges="745178523#0 745178523#1 28696663#0 28696663#1 28192810#0 28192810#1 28192810#2 18070850 -760239273"/>
    </vehicle>
    <vehicle id="57" depart="57.00">
        <route edges="760239273 760239274 28192810#4 28192810#5 737187915 737591319 974882094 -676150375 -676150374 -676150373 -676150371 28245898#0 28245898#1 28245898#2 735444562#0 735444562#1"/>
    </vehicle>
    <vehicle id="59" depart="59.00">
        <route edges="28679839#1 -28679839#1 -31600378 -257420832 -19007537#2 -19007537#1 -946197004 -28193176"/>
    </vehicle>
</routes>
