<?xml version="1.0" encoding="UTF-8"?>

<!-- generated on 2022-04-21 15:55:38 by Eclipse SUMO netconvert Version v1_9_2+1005-096107e
<configuration xmlns:xsi="http://www.w3.org/2001/XMLSchema-instance" xsi:noNamespaceSchemaLocation="http://sumo.dlr.de/xsd/netconvertConfiguration.xsd">

    <input>
        <osm-files value="peta.osm"/>
    </input>

    <output>
        <output-file value="peta.net.xml"/>
    </output>

    <projection>
        <proj.utm value="true"/>
    </projection>

    <report>
        <aggregate-warnings value="5"/>
    </report>

</configuration>
-->

<net version="1.9" junctionCornerDetail="5" limitTurnSpeed="5.50" xmlns:xsi="http://www.w3.org/2001/XMLSchema-instance" xsi:noNamespaceSchemaLocation="http://sumo.dlr.de/xsd/net_file.xsd">

    <location netOffset="-701743.53,686168.55" convBoundary="0.00,0.00,1801.10,1815.90" origBoundary="106.821103,-6.204560,106.839592,-6.188147" projParameter="+proj=utm +zone=48 +ellps=WGS84 +datum=WGS84 +units=m +no_defs"/>

    <type id="highway.bridleway" priority="1" numLanes="1" speed="2.78" allow="pedestrian" oneway="1" width="2.00"/>
    <type id="highway.bus_guideway" priority="1" numLanes="1" speed="27.78" allow="bus" oneway="1"/>
    <type id="highway.cycleway" priority="1" numLanes="1" speed="8.33" allow="bicycle" oneway="0" width="1.00"/>
    <type id="highway.footway" priority="1" numLanes="1" speed="2.78" allow="pedestrian" oneway="1" width="2.00"/>
    <type id="highway.ford" priority="1" numLanes="1" speed="2.78" allow="army" oneway="0"/>
    <type id="highway.living_street" priority="2" numLanes="1" speed="2.78" disallow="tram rail_urban rail rail_electric rail_fast ship" oneway="0"/>
    <type id="highway.motorway" priority="14" numLanes="2" speed="39.44" allow="private emergency authority army vip passenger hov taxi bus coach delivery truck trailer motorcycle evehicle custom1 custom2" oneway="1"/>
    <type id="highway.motorway_link" priority="9" numLanes="1" speed="22.22" allow="private emergency authority army vip passenger hov taxi bus coach delivery truck trailer motorcycle evehicle custom1 custom2" oneway="1"/>
    <type id="highway.path" priority="1" numLanes="1" speed="2.78" allow="pedestrian bicycle" oneway="0" width="2.00"/>
    <type id="highway.pedestrian" priority="1" numLanes="1" speed="2.78" allow="pedestrian" oneway="1" width="2.00"/>
    <type id="highway.primary" priority="12" numLanes="2" speed="27.78" disallow="tram rail_urban rail rail_electric rail_fast ship" oneway="0"/>
    <type id="highway.primary_link" priority="7" numLanes="1" speed="22.22" disallow="tram rail_urban rail rail_electric rail_fast ship" oneway="0"/>
    <type id="highway.raceway" priority="15" numLanes="2" speed="83.33" allow="vip" oneway="0"/>
    <type id="highway.residential" priority="3" numLanes="1" speed="13.89" disallow="tram rail_urban rail rail_electric rail_fast ship" oneway="0"/>
    <type id="highway.secondary" priority="11" numLanes="1" speed="27.78" disallow="tram rail_urban rail rail_electric rail_fast ship" oneway="0"/>
    <type id="highway.secondary_link" priority="6" numLanes="1" speed="22.22" disallow="tram rail_urban rail rail_electric rail_fast ship" oneway="0"/>
    <type id="highway.service" priority="1" numLanes="1" speed="5.56" allow="pedestrian delivery bicycle" oneway="0"/>
    <type id="highway.stairs" priority="1" numLanes="1" speed="1.39" allow="pedestrian" oneway="1" width="2.00"/>
    <type id="highway.step" priority="1" numLanes="1" speed="1.39" allow="pedestrian" oneway="1" width="2.00"/>
    <type id="highway.steps" priority="1" numLanes="1" speed="1.39" allow="pedestrian" oneway="1" width="2.00"/>
    <type id="highway.tertiary" priority="10" numLanes="1" speed="22.22" disallow="tram rail_urban rail rail_electric rail_fast ship" oneway="0"/>
    <type id="highway.tertiary_link" priority="5" numLanes="1" speed="22.22" disallow="tram rail_urban rail rail_electric rail_fast ship" oneway="0"/>
    <type id="highway.track" priority="1" numLanes="1" speed="5.56" allow="pedestrian motorcycle moped bicycle" oneway="0"/>
    <type id="highway.trunk" priority="13" numLanes="2" speed="27.78" disallow="pedestrian bicycle tram rail_urban rail rail_electric rail_fast ship" oneway="0"/>
    <type id="highway.trunk_link" priority="8" numLanes="1" speed="22.22" disallow="pedestrian bicycle tram rail_urban rail rail_electric rail_fast ship" oneway="0"/>
    <type id="highway.unclassified" priority="4" numLanes="1" speed="13.89" disallow="tram rail_urban rail rail_electric rail_fast ship" oneway="0"/>
    <type id="highway.unsurfaced" priority="1" numLanes="1" speed="8.33" disallow="tram rail_urban rail rail_electric rail_fast ship" oneway="0"/>
    <type id="railway.highspeed" priority="21" numLanes="1" speed="69.44" allow="rail_fast" oneway="1"/>
    <type id="railway.light_rail" priority="19" numLanes="1" speed="27.78" allow="rail_urban" oneway="1"/>
    <type id="railway.preserved" priority="16" numLanes="1" speed="27.78" allow="rail" oneway="1"/>
    <type id="railway.rail" priority="20" numLanes="1" speed="44.44" allow="rail" oneway="1"/>
    <type id="railway.subway" priority="18" numLanes="1" speed="27.78" allow="rail_urban" oneway="1"/>
    <type id="railway.tram" priority="17" numLanes="1" speed="13.89" allow="tram" oneway="1"/>

    <edge id=":104353532_0" function="internal">
        <lane id=":104353532_0_0" index="0" disallow="tram rail_urban rail rail_electric rail_fast ship" speed="6.39" length="8.47" shape="550.68,548.08 548.63,548.84 547.30,550.16 546.68,552.03 546.78,554.46"/>
        <lane id=":104353532_0_1" index="1" disallow="tram rail_urban rail rail_electric rail_fast ship" speed="7.91" length="13.51" shape="550.05,544.94 546.70,546.17 544.51,548.25 543.49,551.19 543.62,555.00"/>
    </edge>
    <edge id=":104353532_2" function="internal">
        <lane id=":104353532_2_0" index="0" disallow="tram rail_urban rail rail_electric rail_fast ship" speed="27.78" length="14.43" shape="550.05,544.94 546.07,546.27 543.62,547.96 541.20,549.76 537.30,551.42"/>
    </edge>
    <edge id=":104353532_3" function="internal">
        <lane id=":104353532_3_0" index="0" disallow="tram rail_urban rail rail_electric rail_fast ship" speed="27.78" length="14.26" shape="544.49,540.41 546.78,554.46"/>
        <lane id=":104353532_3_1" index="1" disallow="tram rail_urban rail rail_electric rail_fast ship" speed="27.78" length="14.26" shape="541.33,540.90 543.62,555.00"/>
    </edge>
    <edge id=":104353532_5" function="internal">
        <lane id=":104353532_5_0" index="0" disallow="tram rail_urban rail rail_electric rail_fast ship" speed="7.12" length="9.92" shape="541.33,540.90 541.36,543.52 540.55,545.64 538.90,547.25 536.41,548.35"/>
    </edge>
    <edge id=":1363215491_0" function="internal">
        <lane id=":1363215491_0_0" index="0" disallow="tram rail_urban rail rail_electric rail_fast ship" speed="22.22" length="6.22" shape="207.71,1174.21 207.48,1180.44"/>
        <lane id=":1363215491_0_1" index="1" disallow="tram rail_urban rail rail_electric rail_fast ship" speed="22.22" length="6.22" shape="204.51,1174.11 204.29,1180.31"/>
    </edge>
    <edge id=":1363215491_2" function="internal">
        <lane id=":1363215491_2_0" index="0" allow="pedestrian delivery bicycle" speed="5.10" length="5.05" shape="204.51,1174.11 204.27,1175.44 203.65,1176.39 202.64,1176.96 201.26,1177.14"/>
    </edge>
    <edge id=":1804689404_0" function="internal">
        <lane id=":1804689404_0_0" index="0" disallow="tram rail_urban rail rail_electric rail_fast ship" speed="8.01" length="14.17" shape="1114.97,612.69 1111.09,612.68 1108.14,611.44 1106.11,608.96 1105.00,605.24"/>
        <lane id=":1804689404_0_1" index="1" disallow="tram rail_urban rail rail_electric rail_fast ship" speed="7.34" length="11.71" shape="1114.97,612.69 1112.48,612.48 1110.51,611.10 1109.08,608.53 1108.17,604.77"/>
    </edge>
    <edge id=":1804689404_2" function="internal">
        <lane id=":1804689404_2_0" index="0" disallow="tram rail_urban rail rail_electric rail_fast ship" speed="3.65" length="4.67" shape="1114.97,612.69 1113.67,612.06 1113.16,611.33 1113.45,610.48 1114.52,609.52"/>
    </edge>
    <edge id=":1804689404_3" function="internal">
        <lane id=":1804689404_3_0" index="0" disallow="tram rail_urban rail rail_electric rail_fast ship" speed="22.22" length="12.79" shape="1101.78,617.27 1102.40,613.88 1102.56,611.51 1102.35,609.13 1101.84,605.71"/>
        <lane id=":1804689404_3_1" index="1" disallow="tram rail_urban rail rail_electric rail_fast ship" speed="22.22" length="12.79" shape="1104.92,617.91 1105.60,614.19 1105.78,611.60 1105.56,608.99 1105.00,605.24"/>
        <lane id=":1804689404_3_2" index="2" disallow="tram rail_urban rail rail_electric rail_fast ship" speed="22.22" length="12.79" shape="1108.06,618.55 1108.79,614.51 1109.01,611.68 1108.77,608.85 1108.17,604.77"/>
    </edge>
    <edge id=":1804689404_6" function="internal">
        <lane id=":1804689404_6_0" index="0" disallow="tram rail_urban rail rail_electric rail_fast ship" speed="8.46" length="11.80" shape="1108.06,618.55 1109.10,614.85 1110.52,612.11 1112.33,610.34 1114.52,609.52"/>
    </edge>
    <edge id=":1804689405_0" function="internal">
        <lane id=":1804689405_0_0" index="0" disallow="tram rail_urban rail rail_electric rail_fast ship" speed="8.30" length="13.87" shape="1052.77,682.19 1052.76,678.41 1053.88,675.41 1056.14,673.17 1059.54,671.71"/>
        <lane id=":1804689405_0_1" index="1" disallow="tram rail_urban rail rail_electric rail_fast ship" speed="6.86" length="9.17" shape="1055.94,681.74 1055.93,679.24 1056.66,677.24 1058.15,675.76 1060.38,674.79"/>
    </edge>
    <edge id=":1804689405_2" function="internal">
        <lane id=":1804689405_2_0" index="0" disallow="tram rail_urban rail rail_electric rail_fast ship" speed="22.22" length="11.49" shape="1048.04,670.62 1051.25,670.34 1053.44,670.00 1055.59,669.48 1058.70,668.62"/>
        <lane id=":1804689405_2_1" index="1" disallow="tram rail_urban rail rail_electric rail_fast ship" speed="22.22" length="11.49" shape="1048.28,673.82 1051.68,673.52 1053.98,673.16 1056.26,672.61 1059.54,671.71"/>
        <lane id=":1804689405_2_2" index="2" disallow="tram rail_urban rail rail_electric rail_fast ship" speed="22.22" length="11.49" shape="1048.53,677.01 1052.10,676.69 1054.53,676.32 1056.92,675.75 1060.38,674.79"/>
    </edge>
    <edge id=":186618274_0" function="internal">
        <lane id=":186618274_0_0" index="0" disallow="tram rail_urban rail rail_electric rail_fast ship" speed="22.22" length="8.40" shape="1084.91,1108.00 1087.24,1108.04 1088.84,1107.98 1090.41,1107.67 1092.62,1106.97"/>
        <lane id=":186618274_0_1" index="1" disallow="tram rail_urban rail rail_electric rail_fast ship" speed="22.22" length="8.40" shape="1084.85,1111.19 1087.50,1111.25 1089.33,1111.17 1091.11,1110.80 1093.64,1110.01"/>
    </edge>
    <edge id=":186618274_2" function="internal">
        <lane id=":186618274_2_0" index="0" disallow="tram rail_urban rail rail_electric rail_fast ship" speed="7.59" length="1.53" shape="1087.89,1114.35 1088.08,1112.82"/>
        <lane id=":186618274_2_1" index="1" disallow="tram rail_urban rail rail_electric rail_fast ship" speed="5.92" length="2.05" shape="1091.09,1114.39 1091.27,1112.79 1091.43,1112.37"/>
    </edge>
    <edge id=":186618274_4" function="internal">
        <lane id=":186618274_4_0" index="0" disallow="tram rail_urban rail rail_electric rail_fast ship" speed="7.59" length="7.86" shape="1088.08,1112.82 1088.22,1111.71 1089.11,1109.60 1090.58,1108.02 1092.62,1106.97"/>
    </edge>
    <edge id=":186618274_5" function="internal">
        <lane id=":186618274_5_0" index="0" disallow="tram rail_urban rail rail_electric rail_fast ship" speed="5.92" length="3.37" shape="1091.43,1112.37 1091.75,1111.52 1092.54,1110.60 1093.64,1110.01"/>
    </edge>
    <edge id=":186618276_0" function="internal">
        <lane id=":186618276_0_0" index="0" disallow="tram rail_urban rail rail_electric rail_fast ship" speed="18.06" length="8.36" shape="1074.32,1106.57 1076.43,1107.42 1077.96,1107.80 1079.54,1107.90 1081.83,1107.93"/>
        <lane id=":186618276_0_1" index="1" disallow="tram rail_urban rail rail_electric rail_fast ship" speed="19.47" length="8.36" shape="1073.03,1109.50 1075.49,1110.49 1077.26,1110.95 1079.10,1111.09 1081.77,1111.13"/>
    </edge>
    <edge id=":186618276_2" function="internal">
        <lane id=":186618276_2_0" index="0" disallow="tram rail_urban rail rail_electric rail_fast ship" speed="7.42" length="7.71" shape="1073.03,1109.50 1075.47,1110.71 1077.23,1111.92 1078.31,1113.11 1078.72,1114.29"/>
        <lane id=":186618276_2_1" index="1" disallow="tram rail_urban rail rail_electric rail_fast ship" speed="6.53" length="5.84" shape="1073.03,1109.50 1074.04,1110.18 1074.79,1111.24 1075.29,1112.66 1075.52,1114.46"/>
    </edge>
    <edge id=":186622310_0" function="internal">
        <lane id=":186622310_0_0" index="0" disallow="tram rail_urban rail rail_electric rail_fast ship" speed="5.95" length="7.21" shape="1080.23,947.20 1078.29,947.72 1076.96,948.71 1076.25,950.17 1076.16,952.09"/>
    </edge>
    <edge id=":186622310_1" function="internal">
        <lane id=":186622310_1_0" index="0" disallow="tram rail_urban rail rail_electric rail_fast ship" speed="22.22" length="13.40" shape="1080.23,947.20 1067.05,949.21"/>
        <lane id=":186622310_1_1" index="1" disallow="tram rail_urban rail rail_electric rail_fast ship" speed="22.22" length="13.40" shape="1079.81,944.02 1066.51,946.05"/>
    </edge>
    <edge id=":186622310_3" function="internal">
        <lane id=":186622310_3_0" index="0" disallow="tram rail_urban rail rail_electric rail_fast ship" speed="22.22" length="13.08" shape="1074.91,939.08 1076.16,952.09"/>
        <lane id=":186622310_3_1" index="1" disallow="tram rail_urban rail rail_electric rail_fast ship" speed="22.22" length="13.08" shape="1071.72,939.38 1072.97,952.41"/>
    </edge>
    <edge id=":186622310_5" function="internal">
        <lane id=":186622310_5_0" index="0" disallow="tram rail_urban rail rail_electric rail_fast ship" speed="6.84" length="4.61" shape="1071.72,939.38 1071.59,941.93 1070.73,943.79"/>
    </edge>
    <edge id=":186622310_6" function="internal">
        <lane id=":186622310_6_0" index="0" disallow="tram rail_urban rail rail_electric rail_fast ship" speed="6.84" length="4.90" shape="1070.73,943.79 1070.68,943.89 1068.99,945.27 1066.51,946.05"/>
    </edge>
    <edge id=":186622311_0" function="internal">
        <lane id=":186622311_0_0" index="0" disallow="tram rail_urban rail rail_electric rail_fast ship" speed="15.65" length="8.81" shape="1083.05,1057.63 1080.61,1057.60 1078.95,1057.89 1077.34,1058.53 1075.07,1059.51"/>
        <lane id=":186622311_0_1" index="1" disallow="tram rail_urban rail rail_electric rail_fast ship" speed="17.13" length="8.81" shape="1082.76,1054.42 1080.04,1054.41 1078.18,1054.75 1076.39,1055.45 1073.86,1056.55"/>
    </edge>
    <edge id=":186622311_2" function="internal">
        <lane id=":186622311_2_0" index="0" disallow="tram rail_urban rail rail_electric rail_fast ship" speed="8.02" length="1.44" shape="1079.51,1051.48 1079.34,1052.91"/>
        <lane id=":186622311_2_1" index="1" disallow="tram rail_urban rail rail_electric rail_fast ship" speed="6.44" length="2.56" shape="1076.31,1051.40 1076.12,1053.29 1075.92,1053.92"/>
    </edge>
    <edge id=":186622311_4" function="internal">
        <lane id=":186622311_4_0" index="0" disallow="tram rail_urban rail rail_electric rail_fast ship" speed="8.02" length="8.29" shape="1079.34,1052.91 1079.18,1054.33 1078.32,1056.62 1076.96,1058.35 1075.07,1059.51"/>
    </edge>
    <edge id=":186622311_5" function="internal">
        <lane id=":186622311_5_0" index="0" disallow="tram rail_urban rail rail_electric rail_fast ship" speed="6.44" length="3.47" shape="1075.92,1053.92 1075.65,1054.78 1074.89,1055.87 1073.86,1056.55"/>
    </edge>
    <edge id=":186630478_0" function="internal">
        <lane id=":186630478_0_0" index="0" disallow="tram rail_urban rail rail_electric rail_fast ship" speed="5.78" length="7.37" shape="1076.74,965.07 1077.06,967.13 1077.94,968.54 1079.38,969.29 1081.37,969.39"/>
    </edge>
    <edge id=":186630478_1" function="internal">
        <lane id=":186630478_1_0" index="0" disallow="tram rail_urban rail rail_electric rail_fast ship" speed="22.22" length="13.90" shape="1076.74,965.07 1077.20,978.91"/>
        <lane id=":186630478_1_1" index="1" disallow="tram rail_urban rail rail_electric rail_fast ship" speed="22.22" length="13.90" shape="1073.54,965.11 1074.00,979.06"/>
    </edge>
    <edge id=":186630478_3" function="internal">
        <lane id=":186630478_3_0" index="0" disallow="tram rail_urban rail rail_electric rail_fast ship" speed="22.22" length="13.82" shape="1067.55,970.98 1081.37,969.39"/>
        <lane id=":186630478_3_1" index="1" disallow="tram rail_urban rail rail_electric rail_fast ship" speed="22.22" length="13.82" shape="1068.02,974.15 1081.66,972.57"/>
    </edge>
    <edge id=":186630478_5" function="internal">
        <lane id=":186630478_5_0" index="0" disallow="tram rail_urban rail rail_electric rail_fast ship" speed="6.30" length="4.41" shape="1068.02,974.15 1070.54,974.14 1072.27,974.91"/>
    </edge>
    <edge id=":186630478_6" function="internal">
        <lane id=":186630478_6_0" index="0" disallow="tram rail_urban rail rail_electric rail_fast ship" speed="6.30" length="4.64" shape="1072.27,974.91 1072.37,974.95 1073.53,976.59 1074.00,979.06"/>
    </edge>
    <edge id=":186665923_0" function="internal">
        <lane id=":186665923_0_0" index="0" disallow="tram rail_urban rail rail_electric rail_fast ship" speed="3.65" length="4.67" shape="1549.00,525.66 1550.34,526.18 1550.91,526.87 1550.69,527.74 1549.69,528.78"/>
    </edge>
    <edge id=":186674256_0" function="internal">
        <lane id=":186674256_0_0" index="0" disallow="tram rail_urban rail rail_electric rail_fast ship" speed="12.06" length="18.18" shape="1098.21,340.54 1097.85,334.66 1096.80,329.93 1095.06,326.34 1092.63,323.89"/>
    </edge>
    <edge id=":186674256_1" function="internal">
        <lane id=":186674256_1_0" index="0" disallow="tram rail_urban rail rail_electric rail_fast ship" speed="18.45" length="20.06" shape="1098.21,340.54 1098.36,333.91 1098.93,328.65 1100.02,324.47 1101.75,321.06"/>
    </edge>
    <edge id=":186674256_2" function="internal">
        <lane id=":186674256_2_0" index="0" disallow="tram rail_urban rail rail_electric rail_fast ship" speed="6.57" length="12.54" shape="1101.41,340.20 1101.89,336.40 1103.35,334.26 1105.80,333.76 1109.23,334.92"/>
    </edge>
    <edge id=":186674256_3" function="internal">
        <lane id=":186674256_3_0" index="0" disallow="tram rail_urban rail rail_electric rail_fast ship" speed="22.22" length="19.80" shape="1106.88,337.32 1104.29,334.70 1102.35,330.72 1099.73,326.14 1095.10,321.69"/>
    </edge>
    <edge id=":186674256_4" function="internal">
        <lane id=":186674256_4_0" index="0" disallow="tram rail_urban rail rail_electric rail_fast ship" speed="9.02" length="20.00" shape="1106.88,337.32 1102.08,334.04 1099.63,330.24 1099.52,325.91 1101.75,321.06"/>
    </edge>
    <edge id=":186674256_5" function="internal">
        <lane id=":186674256_5_0" index="0" disallow="tram rail_urban rail rail_electric rail_fast ship" speed="3.71" length="4.90" shape="1106.88,337.32 1106.56,335.84 1106.85,334.95 1107.74,334.64 1109.23,334.92"/>
    </edge>
    <edge id=":186674256_6" function="internal">
        <lane id=":186674256_6_0" index="0" disallow="tram rail_urban rail rail_electric rail_fast ship" speed="6.92" length="2.94" shape="1104.41,322.84 1102.94,324.10 1101.95,324.22"/>
    </edge>
    <edge id=":186674256_7" function="internal">
        <lane id=":186674256_7_0" index="0" disallow="tram rail_urban rail rail_electric rail_fast ship" speed="3.65" length="2.12" shape="1104.41,322.84 1103.08,323.39 1102.41,323.31"/>
    </edge>
    <edge id=":186674256_8" function="internal">
        <lane id=":186674256_8_0" index="0" disallow="tram rail_urban rail rail_electric rail_fast ship" speed="6.92" length="7.47" shape="1101.95,324.22 1100.90,324.34 1098.28,323.53 1095.10,321.69"/>
    </edge>
    <edge id=":186674256_9" function="internal">
        <lane id=":186674256_9_0" index="0" disallow="tram rail_urban rail rail_electric rail_fast ship" speed="3.65" length="2.55" shape="1102.41,323.31 1102.20,323.28 1101.75,322.51 1101.75,321.06"/>
    </edge>
    <edge id=":186674884_0" function="internal">
        <lane id=":186674884_0_0" index="0" disallow="tram rail_urban rail rail_electric rail_fast ship" speed="19.92" length="13.11" shape="1023.80,287.55 1020.50,285.93 1018.13,285.01 1015.64,284.57 1011.99,284.40"/>
        <lane id=":186674884_0_1" index="1" disallow="tram rail_urban rail rail_electric rail_fast ship" speed="21.01" length="13.11" shape="1025.22,284.68 1021.55,282.89 1018.90,281.87 1016.13,281.39 1012.06,281.20"/>
    </edge>
    <edge id=":186674884_2" function="internal">
        <lane id=":186674884_2_0" index="0" disallow="tram rail_urban rail rail_electric rail_fast ship" speed="7.35" length="11.71" shape="1025.22,284.68 1021.92,282.66 1019.91,280.51 1019.19,278.22 1019.75,275.79"/>
    </edge>
    <edge id=":186674884_3" function="internal">
        <lane id=":186674884_3_0" index="0" disallow="tram rail_urban rail rail_electric rail_fast ship" speed="8.86" length="11.91" shape="1022.64,277.18 1021.21,279.01 1018.97,280.29 1015.92,281.02 1012.06,281.20"/>
    </edge>
    <edge id=":186674884_4" function="internal">
        <lane id=":186674884_4_0" index="0" disallow="tram rail_urban rail rail_electric rail_fast ship" speed="3.65" length="4.67" shape="1022.64,277.18 1021.39,277.91 1020.50,277.92 1019.95,277.21 1019.75,275.79"/>
    </edge>
    <edge id=":186674885_0" function="internal">
        <lane id=":186674885_0_0" index="0" disallow="tram rail_urban rail rail_electric rail_fast ship" speed="22.22" length="13.18" shape="968.41,289.76 964.99,291.17 962.74,292.39 960.74,294.00 958.05,296.56"/>
        <lane id=":186674885_0_1" index="1" disallow="tram rail_urban rail rail_electric rail_fast ship" speed="22.22" length="13.18" shape="967.25,286.78 963.47,288.33 960.99,289.68 958.79,291.44 955.83,294.26"/>
    </edge>
    <edge id=":186674885_2" function="internal">
        <lane id=":186674885_2_0" index="0" disallow="tram rail_urban rail rail_electric rail_fast ship" speed="8.35" length="11.71" shape="967.25,286.78 963.58,287.91 960.53,288.20 958.09,287.64 956.26,286.24"/>
    </edge>
    <edge id=":186674885_3" function="internal">
        <lane id=":186674885_3_0" index="0" disallow="tram rail_urban rail rail_electric rail_fast ship" speed="7.48" length="11.60" shape="958.71,284.19 959.80,286.33 959.68,288.72 958.35,291.37 955.83,294.26"/>
    </edge>
    <edge id=":186674885_4" function="internal">
        <lane id=":186674885_4_0" index="0" disallow="tram rail_urban rail rail_electric rail_fast ship" speed="3.65" length="4.67" shape="958.71,284.19 958.87,285.62 958.51,286.44 957.64,286.65 956.26,286.24"/>
    </edge>
    <edge id=":186674888_0" function="internal">
        <lane id=":186674888_0_0" index="0" disallow="tram rail_urban rail rail_electric rail_fast ship" speed="22.22" length="16.24" shape="899.71,349.28 886.48,358.69"/>
    </edge>
    <edge id=":186674888_1" function="internal">
        <lane id=":186674888_1_0" index="0" disallow="tram rail_urban rail rail_electric rail_fast ship" speed="22.22" length="12.63" shape="889.90,346.91 892.59,349.74 894.65,351.52 896.50,353.43 898.61,356.66"/>
        <lane id=":186674888_1_1" index="1" disallow="tram rail_urban rail rail_electric rail_fast ship" speed="22.22" length="12.63" shape="887.46,348.97 890.03,351.66 892.01,353.34 893.80,355.14 895.81,358.22"/>
        <lane id=":186674888_1_2" index="2" disallow="tram rail_urban rail rail_electric rail_fast ship" speed="22.22" length="12.63" shape="887.46,348.97 889.56,351.87 890.60,354.12 891.45,356.50 893.01,359.77"/>
    </edge>
    <edge id=":186674888_4" function="internal">
        <lane id=":186674888_4_0" index="0" disallow="tram rail_urban rail rail_electric rail_fast ship" speed="7.22" length="6.51" shape="887.46,348.97 888.98,351.46 889.32,353.91 888.96,354.97"/>
    </edge>
    <edge id=":186674888_5" function="internal">
        <lane id=":186674888_5_0" index="0" disallow="tram rail_urban rail rail_electric rail_fast ship" speed="7.22" length="4.54" shape="888.96,354.97 888.49,356.32 886.48,358.69"/>
    </edge>
    <edge id=":186675491_0" function="internal">
        <lane id=":186675491_0_0" index="0" disallow="tram rail_urban rail rail_electric rail_fast ship" speed="26.37" length="15.56" shape="1098.57,464.64 1093.82,465.26 1090.52,465.36 1087.25,464.88 1082.60,463.75"/>
        <lane id=":186675491_0_1" index="1" disallow="tram rail_urban rail rail_electric rail_fast ship" speed="25.33" length="15.56" shape="1098.12,461.48 1093.75,462.04 1090.70,462.13 1087.68,461.69 1083.39,460.65"/>
    </edge>
    <edge id=":186675491_2" function="internal">
        <lane id=":186675491_2_0" index="0" disallow="tram rail_urban rail rail_electric rail_fast ship" speed="6.14" length="9.04" shape="1098.12,461.48 1095.60,461.46 1093.83,460.60 1092.82,458.90 1092.58,456.34"/>
    </edge>
    <edge id=":186675491_3" function="internal">
        <lane id=":186675491_3_0" index="0" disallow="tram rail_urban rail rail_electric rail_fast ship" speed="6.72" length="9.58" shape="1087.42,470.68 1087.60,468.23 1086.86,466.26 1085.19,464.77 1082.60,463.75"/>
        <lane id=":186675491_3_1" index="1" disallow="tram rail_urban rail rail_electric rail_fast ship" speed="8.17" length="14.68" shape="1090.53,471.42 1090.84,467.59 1089.76,464.51 1087.28,462.20 1083.39,460.65"/>
    </edge>
    <edge id=":186675491_5" function="internal">
        <lane id=":186675491_5_0" index="0" disallow="tram rail_urban rail rail_electric rail_fast ship" speed="22.22" length="15.42" shape="1090.53,471.42 1091.06,466.99 1090.50,463.89 1089.67,460.76 1089.38,456.21"/>
    </edge>
    <edge id=":186690076_0" function="internal">
        <lane id=":186690076_0_0" index="0" disallow="tram rail_urban rail rail_electric rail_fast ship" speed="27.78" length="9.48" shape="619.86,1123.24 619.69,1113.72"/>
        <lane id=":186690076_0_1" index="1" disallow="tram rail_urban rail rail_electric rail_fast ship" speed="27.78" length="9.48" shape="623.06,1123.14 622.89,1113.70"/>
    </edge>
    <edge id=":186690076_2" function="internal">
        <lane id=":186690076_2_0" index="0" disallow="tram rail_urban rail rail_electric rail_fast ship" speed="6.13" length="7.83" shape="623.06,1123.14 623.17,1120.39 623.71,1118.40 624.67,1117.18 626.06,1116.73"/>
    </edge>
    <edge id=":186690076_3" function="internal">
        <lane id=":186690076_3_0" index="0" disallow="tram rail_urban rail rail_electric rail_fast ship" speed="6.04" length="7.86" shape="626.20,1119.92 624.76,1119.59 623.73,1118.44 623.11,1116.47 622.89,1113.70"/>
    </edge>
    <edge id=":186690076_4" function="internal">
        <lane id=":186690076_4_0" index="0" disallow="tram rail_urban rail rail_electric rail_fast ship" speed="3.65" length="4.67" shape="626.20,1119.92 624.97,1119.17 624.53,1118.39 624.90,1117.58 626.06,1116.73"/>
    </edge>
    <edge id=":186690344_0" function="internal">
        <lane id=":186690344_0_0" index="0" disallow="tram rail_urban rail rail_electric rail_fast ship" speed="6.51" length="8.77" shape="827.45,1115.89 826.90,1113.56 825.74,1111.94 823.97,1111.02 821.59,1110.80"/>
    </edge>
    <edge id=":186690344_1" function="internal">
        <lane id=":186690344_1_0" index="0" disallow="tram rail_urban rail rail_electric rail_fast ship" speed="8.69" length="13.49" shape="827.45,1115.89 827.56,1112.18 828.65,1109.15 830.70,1106.81 833.73,1105.16"/>
    </edge>
    <edge id=":186690344_2" function="internal">
        <lane id=":186690344_2_0" index="0" disallow="tram rail_urban rail rail_electric rail_fast ship" speed="3.65" length="2.53" shape="827.45,1115.89 828.13,1114.62 828.89,1114.15 829.07,1114.21"/>
    </edge>
    <edge id=":186690344_9" function="internal">
        <lane id=":186690344_9_0" index="0" disallow="tram rail_urban rail rail_electric rail_fast ship" speed="3.65" length="2.15" shape="829.07,1114.21 829.73,1114.47 830.63,1115.59"/>
    </edge>
    <edge id=":186690344_3" function="internal">
        <lane id=":186690344_3_0" index="0" disallow="tram rail_urban rail rail_electric rail_fast ship" speed="7.30" length="9.28" shape="834.85,1108.15 832.81,1109.28 831.43,1110.90 830.70,1113.00 830.63,1115.59"/>
    </edge>
    <edge id=":186690344_4" function="internal">
        <lane id=":186690344_4_0" index="0" disallow="tram rail_urban rail rail_electric rail_fast ship" speed="18.05" length="13.59" shape="834.85,1108.15 831.51,1109.27 828.34,1110.04 825.11,1110.53 821.59,1110.80"/>
    </edge>
    <edge id=":186690344_5" function="internal">
        <lane id=":186690344_5_0" index="0" disallow="tram rail_urban rail rail_electric rail_fast ship" speed="3.65" length="2.08" shape="834.85,1108.15 833.45,1107.82 832.98,1107.39"/>
    </edge>
    <edge id=":186690344_10" function="internal">
        <lane id=":186690344_10_0" index="0" disallow="tram rail_urban rail rail_electric rail_fast ship" speed="3.65" length="2.59" shape="832.98,1107.39 832.79,1107.22 832.89,1106.33 833.73,1105.16"/>
    </edge>
    <edge id=":186690344_6" function="internal">
        <lane id=":186690344_6_0" index="0" disallow="tram rail_urban rail rail_electric rail_fast ship" speed="18.05" length="12.61" shape="821.43,1107.61 824.80,1107.36 827.69,1106.95 830.53,1106.24 833.73,1105.16"/>
    </edge>
    <edge id=":186690344_7" function="internal">